45
XYZ file generated by Avogadro.
C     -0.4059598307   -0.8917644165    0.3782618041
C      0.7854455721   -1.7440483753   -0.0759370110
C      0.3171859478   -3.0618868018   -0.7109570100
C      1.5084561673   -3.9907832577   -0.9921105462
C      2.3733680844   -4.1423114660    0.2644835201
C      2.7688339392   -2.7482822459    0.7928550467
O      1.6023132890   -1.9764142844    1.0931454111
O      3.5662244202   -2.0764937367   -0.1804349040
C      4.5819080468   -1.2035077345    0.3272575684
C      4.0122889485   -0.1105454913    1.2728910994
O      5.0162302288    0.7496276905    1.8096563084
C      5.7506972059   -2.0125959515    0.9128925473
C      6.9668464487   -1.1345296374    0.6553129329
C      6.5885396498   -0.3902312576   -0.6316226303
C      7.2826801125   -0.8825115986   -1.9058017515
O      7.2583381010   -2.3107842426   -1.9948822684
O      5.1571154242   -0.5255217849   -0.8137773965
O      8.1713278108   -1.9002992146    0.5534535093
O      5.9273866999   -3.2619684590    0.2018863417
O      3.5336497081   -4.9440912499    0.0113640517
O      0.9845508215   -5.2658907406   -1.4020260894
O     -0.3806147073   -2.8455873598   -1.9435351136
O      0.0638801079    0.2933937015    1.0220014991
H     -1.0219890734   -1.4317284602    1.1050157416
H     -1.0352326157   -0.5953142271   -0.4656924437
H      1.3606707217   -1.1461628083   -0.7945432453
H     -0.3726398468   -3.5853871153   -0.0355874512
H      2.1086328090   -3.6262267698   -1.8345633048
H      1.7904239479   -4.6721112526    1.0276217551
H      3.3342556787   -2.8883182366    1.7206736009
H      3.2969398176    0.5091894761    0.7199294307
H      3.4864048137   -0.5526841783    2.1232616576
H      4.5544349518    1.5264198415    2.1754915326
H      5.6246335406   -2.2678717284    1.9686584225
H      7.1088732004   -0.4193099483    1.4704872467
H      6.7885138136    0.6815932595   -0.5204004675
H      6.7733901856   -0.4944334971   -2.7934222600
H      8.3278123950   -0.5567272221   -1.9351516917
H      8.0051958147   -2.6061318964   -1.4330984557
H      7.9598493869   -2.7901742697    0.9035199262
H      6.0368846247   -3.0226328312   -0.7499780578
H      4.2433784179   -4.3556231268   -0.3156773734
H      0.4670589368   -5.0836261016   -2.2091373194
H     -1.2937135254   -2.5809248453   -1.7343029907
H      0.7032762174   -0.0142246391    1.6914898076
